Simulation_Files/R2-12.47-2/R2_1247_2.glm
//Input feeder information for Taxonomy Feeders with different cases.
//Started on 10/21/09. This version created 05-Feb-2018 16:52:35.
// This version was created to perform FY11 Department of Energy
// analysis on the benefits of the SGIG grant projects.

clock {
     timezone CST+6CDT;
     starttime '2009-07-09 12:47:00';
     stoptime '2009-07-09 14:17:00';
}

#set randomseed=1;
 
#include ".\Schedules\appliance_schedules.glm";
#include ".\Schedules\water_and_setpoint_schedule_v5.glm";
#include ".\Schedules\commercial_schedules.glm";
//#define stylesheet=http://gridlab-d.svn.sourceforge.net/viewvc/gridlab-d/trunk/core/gridlabd-2_0
#set minimum_timestep=2;
#set profiler=1;
#set relax_naming_rules=1;

#set pauseatexit=TRUE
//link with matlab
#ifdef MATLAB
link matlabController.link;
#endif
module tape;
module climate;
module residential {
     implicit_enduses NONE;
};
module powerflow {
     solver_method NR;
     NR_iteration_limit 50;
};

class player {
     double value;
};

object player {
     name controlOnOff;
     file "controlOnOff.player";
     loop 1000000;
};

module market;

object climate {
     name "IL-Chicago";
     tmyfile ".\\Weather\\IL-Chicago.tmy2";
     interpolate QUADRATIC;
};

//Configurations

object regulator_configuration {     
      name regulator_configuration_1616;     
      name feeder_reg_cfg;     
      Control OUTPUT_VOLTAGE;     
      band_center 7500.0;     
      band_width 120;     
      connect_type WYE_WYE;     
      time_delay 30;     
      raise_taps 16;     
      lower_taps 16;     
      regulation 0.10;     
      tap_pos_A 0;     
      tap_pos_B 0;     
      tap_pos_C 0;     
}       

object regulator_configuration {     
      name regulator_configuration_9994;     
      name voltage_reg_cfg;     
      Control OUTPUT_VOLTAGE;     
      band_center 7500.0;     
      band_width 120;     
      connect_type WYE_WYE;     
      time_delay 30;     
      raise_taps 16;     
      lower_taps 16;     
      regulation 0.10;     
      tap_pos_A 0;     
      tap_pos_B 0;     
      tap_pos_C 0;     
}       

object line_configuration {     
      name line_configuration_24;     
      conductor_A overhead_line_conductor_2;     
      conductor_N overhead_line_conductor_2;     
      spacing line_spacing_17;     
}       

object line_configuration {     
      name line_configuration_25;     
      conductor_A overhead_line_conductor_3;     
      conductor_B overhead_line_conductor_3;     
      conductor_C overhead_line_conductor_3;     
      conductor_N overhead_line_conductor_3;     
      spacing line_spacing_18;     
}       

object line_configuration {     
      name line_configuration_26;     
      conductor_A overhead_line_conductor_4;     
      conductor_N overhead_line_conductor_4;     
      spacing line_spacing_17;     
}       

object line_configuration {     
      name line_configuration_27;     
      conductor_A overhead_line_conductor_5;     
      conductor_N overhead_line_conductor_5;     
      spacing line_spacing_17;     
}       

object line_configuration {     
      name line_configuration_28;     
      conductor_C overhead_line_conductor_2;     
      conductor_N overhead_line_conductor_2;     
      spacing line_spacing_19;     
}       

object line_configuration {     
      name line_configuration_29;     
      conductor_C overhead_line_conductor_2;     
      conductor_N overhead_line_conductor_2;     
      spacing line_spacing_19;     
}       

object line_configuration {     
      name line_configuration_30;     
      conductor_A overhead_line_conductor_6;     
      conductor_B overhead_line_conductor_6;     
      conductor_C overhead_line_conductor_6;     
      conductor_N overhead_line_conductor_6;     
      spacing line_spacing_18;     
}       

object line_configuration {     
      name line_configuration_31;     
      conductor_B underground_line_conductor_7;     
      conductor_N underground_line_conductor_7;     
      spacing line_spacing_20;     
}       

object line_configuration {     
      name line_configuration_32;     
      conductor_A overhead_line_conductor_8;     
      conductor_B overhead_line_conductor_8;     
      conductor_C overhead_line_conductor_8;     
      conductor_N overhead_line_conductor_8;     
      spacing line_spacing_18;     
}       

object line_configuration {     
      name line_configuration_33;     
      conductor_A underground_line_conductor_9;     
      conductor_B underground_line_conductor_9;     
      conductor_C underground_line_conductor_9;     
      conductor_N underground_line_conductor_9;     
      spacing line_spacing_18;     
}       

object line_configuration {     
      name line_configuration_34;     
      conductor_C underground_line_conductor_7;     
      conductor_N underground_line_conductor_7;     
      spacing line_spacing_19;     
}       

object line_configuration {     
      name line_configuration_35;     
      conductor_B overhead_line_conductor_2;     
      conductor_N overhead_line_conductor_2;     
      spacing line_spacing_20;     
}       

object line_configuration {     
      name line_configuration_36;     
      conductor_C overhead_line_conductor_4;     
      conductor_N overhead_line_conductor_4;     
      spacing line_spacing_19;     
}       

object line_configuration {     
      name line_configuration_37;     
      conductor_B overhead_line_conductor_2;     
      conductor_C overhead_line_conductor_2;     
      conductor_N overhead_line_conductor_2;     
      spacing line_spacing_21;     
}       

object line_configuration {     
      name line_configuration_38;     
      conductor_A underground_line_conductor_7;     
      conductor_B underground_line_conductor_7;     
      conductor_C underground_line_conductor_7;     
      conductor_N underground_line_conductor_7;     
      spacing line_spacing_18;     
}       

object line_configuration {     
      name line_configuration_39;     
      conductor_A overhead_line_conductor_2;     
      conductor_B overhead_line_conductor_2;     
      conductor_C overhead_line_conductor_2;     
      conductor_N overhead_line_conductor_2;     
      spacing line_spacing_18;     
}       

object line_configuration {     
      name line_configuration_40;     
      conductor_A overhead_line_conductor_10;     
      conductor_B overhead_line_conductor_10;     
      conductor_C overhead_line_conductor_10;     
      conductor_N overhead_line_conductor_10;     
      spacing line_spacing_18;     
}       

object line_configuration {     
      name line_configuration_41;     
      conductor_A overhead_line_conductor_11;     
      conductor_N overhead_line_conductor_11;     
      spacing line_spacing_17;     
}       

object line_configuration {     
      name line_configuration_42;     
      conductor_A overhead_line_conductor_11;     
      conductor_N overhead_line_conductor_11;     
      spacing line_spacing_17;     
}       

object line_configuration {     
      name line_configuration_43;     
      conductor_B overhead_line_conductor_2;     
      conductor_N overhead_line_conductor_2;     
      spacing line_spacing_20;     
}       

object line_configuration {     
      name line_configuration_44;     
      conductor_A overhead_line_conductor_2;     
      conductor_B overhead_line_conductor_2;     
      conductor_N overhead_line_conductor_2;     
      spacing line_spacing_22;     
}       

object line_configuration {     
      name line_configuration_45;     
      conductor_A overhead_line_conductor_12;     
      conductor_B overhead_line_conductor_12;     
      conductor_C overhead_line_conductor_12;     
      conductor_N overhead_line_conductor_12;     
      spacing line_spacing_18;     
}       

object line_configuration {     
      name line_configuration_46;     
      conductor_A overhead_line_conductor_12;     
      conductor_B overhead_line_conductor_12;     
      conductor_C overhead_line_conductor_12;     
      conductor_N overhead_line_conductor_12;     
      spacing line_spacing_18;     
}       

object line_configuration {     
      name line_configuration_47;     
      conductor_A overhead_line_conductor_11;     
      conductor_C overhead_line_conductor_11;     
      conductor_N overhead_line_conductor_11;     
      spacing line_spacing_23;     
}       

object line_configuration {     
      name line_configuration_48;     
      conductor_C overhead_line_conductor_4;     
      conductor_N overhead_line_conductor_4;     
      spacing line_spacing_19;     
}       

object line_configuration {     
      name line_configuration_49;     
      conductor_C overhead_line_conductor_4;     
      conductor_N overhead_line_conductor_4;     
      spacing line_spacing_19;     
}       

object line_configuration {     
      name line_configuration_50;     
      conductor_B overhead_line_conductor_5;     
      conductor_N overhead_line_conductor_5;     
      spacing line_spacing_20;     
}       

object line_configuration {     
      name line_configuration_51;     
      conductor_B overhead_line_conductor_10;     
      conductor_N overhead_line_conductor_10;     
      spacing line_spacing_20;     
}       

object line_configuration {     
      name line_configuration_52;     
      conductor_A overhead_line_conductor_2;     
      conductor_B overhead_line_conductor_2;     
      conductor_C overhead_line_conductor_2;     
      conductor_N overhead_line_conductor_2;     
      spacing line_spacing_18;     
}       

object line_configuration {     
      name line_configuration_53;     
      conductor_A overhead_line_conductor_6;     
      conductor_B overhead_line_conductor_6;     
      conductor_C overhead_line_conductor_6;     
      conductor_N overhead_line_conductor_6;     
      spacing line_spacing_18;     
}       

object line_configuration {     
      name line_configuration_54;     
      conductor_A overhead_line_conductor_11;     
      conductor_N overhead_line_conductor_11;     
      spacing line_spacing_17;     
}       

object line_configuration {     
      name line_configuration_55;     
      conductor_A overhead_line_conductor_11;     
      conductor_N overhead_line_conductor_11;     
      spacing line_spacing_17;     
}       

object line_configuration {     
      name line_configuration_56;     
      conductor_B overhead_line_conductor_11;     
      conductor_N overhead_line_conductor_11;     
      spacing line_spacing_20;     
}       

object line_configuration {     
      name line_configuration_57;     
      conductor_A overhead_line_conductor_2;     
      conductor_C overhead_line_conductor_2;     
      conductor_N overhead_line_conductor_2;     
      spacing line_spacing_23;     
}       

object line_configuration {     
      name line_configuration_58;     
      conductor_A overhead_line_conductor_5;     
      conductor_B overhead_line_conductor_5;     
      conductor_C overhead_line_conductor_5;     
      conductor_N overhead_line_conductor_5;     
      spacing line_spacing_18;     
}       

object line_configuration {     
      name line_configuration_59;     
      conductor_B overhead_line_conductor_2;     
      conductor_N overhead_line_conductor_2;     
      spacing line_spacing_20;     
}       

object line_configuration {     
      name line_configuration_60;     
      conductor_C underground_line_conductor_13;     
      conductor_N underground_line_conductor_13;     
      spacing line_spacing_19;     
}       

object line_configuration {     
      name line_configuration_61;     
      conductor_B overhead_line_conductor_4;     
      conductor_N overhead_line_conductor_4;     
      spacing line_spacing_20;     
}       

object line_configuration {     
      name line_configuration_62;     
      conductor_A overhead_line_conductor_2;     
      conductor_N overhead_line_conductor_2;     
      spacing line_spacing_17;     
}       

object line_configuration {     
      name line_configuration_63;     
      conductor_C overhead_line_conductor_5;     
      conductor_N overhead_line_conductor_5;     
      spacing line_spacing_19;     
}       

object line_configuration {     
      name line_configuration_64;     
      conductor_A overhead_line_conductor_4;     
      conductor_N overhead_line_conductor_4;     
      spacing line_spacing_17;     
}       

object line_spacing {     
      name line_spacing_17;     
      distance_AN 0.0 in;    
}       

object line_spacing {     
      name line_spacing_18;     
      distance_AB 0.0 in;    
      distance_BC 0.0 in;    
      distance_AC 0.0 in;    
      distance_AN 0.0 in;    
      distance_BN 0.0 in;    
      distance_CN 0.0 in;    
}       

object line_spacing {     
      name line_spacing_19;     
      distance_CN 0.0 in;    
}       

object line_spacing {     
      name line_spacing_20;     
      distance_BN 0.0 in;    
}       

object line_spacing {     
      name line_spacing_21;     
      distance_BC 0.0 in;    
      distance_BN 0.0 in;    
      distance_CN 0.0 in;    
}       

object line_spacing {     
      name line_spacing_22;     
      distance_AB 0.0 in;    
      distance_AN 0.0 in;    
      distance_BN 0.0 in;    
}       

object line_spacing {     
      name line_spacing_23;     
      distance_AC 0.0 in;    
      distance_AN 0.0 in;    
      distance_CN 0.0 in;    
}       

object overhead_line_conductor {     
      name overhead_line_conductor_2;     
      //name 2 ACSR;    
      rating.summer.continuous 180.0;     
      geometric_mean_radius 0.00418 ft;    
      resistance 1.62570;     
}       

object overhead_line_conductor {     
      name overhead_line_conductor_3;     
      //name 394 AAAC;    
      rating.summer.continuous 533.0;     
      geometric_mean_radius 0.02280 ft;    
      resistance 0.25800;     
}       

object overhead_line_conductor {     
      name overhead_line_conductor_4;     
      //name 4 CU;    
      rating.summer.continuous 149.0;     
      geometric_mean_radius 0.00663 ft;    
      resistance 1.50000;     
}       

object overhead_line_conductor {     
      name overhead_line_conductor_5;     
      //name 2/0 AAC;    
      rating.summer.continuous 270.0;     
      geometric_mean_radius 0.01350 ft;    
      resistance 0.13200;     
}       

object overhead_line_conductor {     
      name overhead_line_conductor_6;     
      //name 559.5 AAAC;    
      rating.summer.continuous 663.0;     
      geometric_mean_radius 0.02710 ft;    
      resistance 0.03690;     
}       

object overhead_line_conductor {     
      name overhead_line_conductor_8;     
      //name 336 ACSR;    
      rating.summer.continuous 530.0;     
      geometric_mean_radius 0.02300 ft;    
      resistance 0.30300;     
}       

object overhead_line_conductor {     
      name overhead_line_conductor_10;     
      //name 3/0 ACSR;    
      rating.summer.continuous 300.0;     
      geometric_mean_radius 0.00600 ft;    
      resistance 0.63800;     
}       

object overhead_line_conductor {     
      name overhead_line_conductor_11;     
      //name 2 AAAC;    
      rating.summer.continuous 197.0;     
      geometric_mean_radius 0.00883 ft;    
      resistance 1.51970;     
}       

object overhead_line_conductor {     
      name overhead_line_conductor_12;     
      //name 266.8 AAC;    
      rating.summer.continuous 388.0;     
      geometric_mean_radius 0.02020 ft;    
      resistance 0.06570;     
}       

object overhead_line_conductor {     
      name overhead_line_conductor_14;     
      //name 123.3 AAAC;    
      rating.summer.continuous 256.0;     
      geometric_mean_radius 0.01200 ft;    
      resistance 0.16600;     
}       

object overhead_line_conductor {     
      name overhead_line_conductor_15;     
      //name 4/0 AAC;    
      rating.summer.continuous 360.0;     
      geometric_mean_radius 0.01033 ft;    
      resistance 0.47600;     
}       

object overhead_line_conductor {     
      name overhead_line_conductor_16;     
      //name 2 CU;    
      rating.summer.continuous 204.0;     
      geometric_mean_radius 0.00836 ft;    
      resistance 0.94500;     
}       

object transformer_configuration {     
      name transformer_configuration_1101;     
      oil_volume 15;     
      core_coil_weight 115.9863;     
      tank_fittings_weight 139.1836;     
      full_load_loss 0.01748;     
      no_load_loss 0.00472;     
      rated_winding_hot_spot_rise 80;     
      rated_top_oil_rise 60;     
      coolant_type MINERAL_OIL;     
      cooling_type OA;     
      rated_winding_time_constant 0.083333;     
      installed_insulation_life 175200;     
      connect_type SINGLE_PHASE_CENTER_TAPPED;     
      install_type POLETOP;     
      primary_voltage 7200 V;    
      secondary_voltage 120 V;    
      power_rating 25.0;     
      powerA_rating 25.0;     
      resistance 0.00600;     
      reactance 0.00400;     
      shunt_impedance 339.610+320.666j;     
}       

object transformer_configuration {     
      name transformer_configuration_1102;     
      oil_volume 5.7289;     
      core_coil_weight 56.5652;     
      tank_fittings_weight 67.8782;     
      full_load_loss 0.0346;     
      no_load_loss 0.01;     
      rated_winding_hot_spot_rise 80;     
      rated_top_oil_rise 60;     
      coolant_type MINERAL_OIL;     
      cooling_type OA;     
      rated_winding_time_constant 0.083333;     
      installed_insulation_life 175200;     
      connect_type SINGLE_PHASE_CENTER_TAPPED;     
      install_type POLETOP;     
      primary_voltage 7200 V;    
      secondary_voltage 120 V;    
      power_rating 5;     
      powerA_rating 5;     
      resistance 0.015;     
      reactance 0.01;     
      shunt_impedance 297.890+294.716j;     
}       

object transformer_configuration {     
      name transformer_configuration_1103;     
      oil_volume 26;     
      core_coil_weight 216.346;     
      tank_fittings_weight 259.6152;     
      full_load_loss 0.0147;     
      no_load_loss 0.0037;     
      rated_winding_hot_spot_rise 80;     
      rated_top_oil_rise 60;     
      coolant_type MINERAL_OIL;     
      cooling_type OA;     
      rated_winding_time_constant 0.083333;     
      installed_insulation_life 175200;     
      connect_type SINGLE_PHASE_CENTER_TAPPED;     
      install_type POLETOP;     
      primary_voltage 7200 V;    
      secondary_voltage 120 V;    
      power_rating 50.0;     
      powerA_rating 50.0;     
      resistance 0.00300;     
      reactance 0.00200;     
      shunt_impedance 391.760+383.331j;     
}       

object transformer_configuration {     
      name transformer_configuration_1104;     
      oil_volume 15;     
      core_coil_weight 115.9863;     
      tank_fittings_weight 139.1836;     
      full_load_loss 0.01748;     
      no_load_loss 0.00472;     
      rated_winding_hot_spot_rise 80;     
      rated_top_oil_rise 60;     
      coolant_type MINERAL_OIL;     
      cooling_type OA;     
      rated_winding_time_constant 0.083333;     
      installed_insulation_life 175200;     
      connect_type SINGLE_PHASE_CENTER_TAPPED;     
      install_type PADMOUNT;     
      primary_voltage 7200 V;    
      secondary_voltage 120 V;    
      power_rating 25.0;     
      powerA_rating 25.0;     
      resistance 0.00600;     
      reactance 0.00400;     
      shunt_impedance 339.610+355.690j;     
}       

object transformer_configuration {     
      name transformer_configuration_1105;     
      oil_volume 26;     
      core_coil_weight 216.346;     
      tank_fittings_weight 259.6152;     
      full_load_loss 0.0147;     
      no_load_loss 0.0037;     
      rated_winding_hot_spot_rise 80;     
      rated_top_oil_rise 60;     
      coolant_type MINERAL_OIL;     
      cooling_type OA;     
      rated_winding_time_constant 0.083333;     
      installed_insulation_life 175200;     
      connect_type SINGLE_PHASE_CENTER_TAPPED;     
      install_type PADMOUNT;     
      primary_voltage 7200 V;    
      secondary_voltage 120 V;    
      power_rating 50.0;     
      powerA_rating 50.0;     
      resistance 0.00300;     
      reactance 0.00200;     
      shunt_impedance 391.760+445.260j;     
}       

object transformer_configuration {     
      name transformer_configuration_1106;     
      oil_volume 62.6955;     
      core_coil_weight 484.8942;     
      tank_fittings_weight 581.873;     
      full_load_loss 0.0132;     
      no_load_loss 0.0039;     
      rated_winding_hot_spot_rise 80;     
      rated_top_oil_rise 60;     
      coolant_type MINERAL_OIL;     
      cooling_type OA;     
      rated_winding_time_constant 0.083333;     
      installed_insulation_life 175200;     
      connect_type SINGLE_PHASE_CENTER_TAPPED;     
      install_type POLETOP;     
      primary_voltage 7200 V;    
      secondary_voltage 120 V;    
      power_rating 175.0;     
      powerA_rating 175.0;     
      resistance 0.00086;     
      reactance 0.00057;     
      shunt_impedance 652.510+545.642j;     
}       

object transformer_configuration {     
      name transformer_configuration_1107;     
      oil_volume 17;     
      core_coil_weight 163.5724;     
      tank_fittings_weight 196.2869;     
      full_load_loss 0.015811;     
      no_load_loss 0.0044865;     
      rated_winding_hot_spot_rise 80;     
      rated_top_oil_rise 60;     
      coolant_type MINERAL_OIL;     
      cooling_type OA;     
      rated_winding_time_constant 0.083333;     
      installed_insulation_life 175200;     
      connect_type SINGLE_PHASE_CENTER_TAPPED;     
      install_type POLETOP;     
      primary_voltage 7200 V;    
      secondary_voltage 120 V;    
      power_rating 37.5;     
      powerA_rating 37.5;     
      resistance 0.00400;     
      reactance 0.00267;     
      shunt_impedance 365.685+439.690j;     
}       

object transformer_configuration {     
      name transformer_configuration_1108;     
      oil_volume 10;     
      core_coil_weight 85.6576;     
      tank_fittings_weight 102.7891;     
      full_load_loss 0.020333;     
      no_load_loss 0.0056;     
      rated_winding_hot_spot_rise 80;     
      rated_top_oil_rise 60;     
      coolant_type MINERAL_OIL;     
      cooling_type OA;     
      rated_winding_time_constant 0.083333;     
      installed_insulation_life 175200;     
      connect_type SINGLE_PHASE_CENTER_TAPPED;     
      install_type PADMOUNT;     
      primary_voltage 7200 V;    
      secondary_voltage 120 V;    
      power_rating 15.0;     
      powerA_rating 15.0;     
      resistance 0.01000;     
      reactance 0.00667;     
      shunt_impedance 318.750+343.542j;     
}       

object transformer_configuration {     
      name transformer_configuration_1109;     
      oil_volume 8;     
      core_coil_weight 72.1624;     
      tank_fittings_weight 86.5949;     
      full_load_loss 0.0239;     
      no_load_loss 0.0067;     
      rated_winding_hot_spot_rise 80;     
      rated_top_oil_rise 60;     
      coolant_type MINERAL_OIL;     
      cooling_type OA;     
      rated_winding_time_constant 0.083333;     
      installed_insulation_life 175200;     
      connect_type SINGLE_PHASE_CENTER_TAPPED;     
      install_type POLETOP;     
      primary_voltage 7200 V;    
      secondary_voltage 120 V;    
      power_rating 10.0;     
      powerA_rating 10.0;     
      resistance 0.015;     
      reactance 0.01;     
      shunt_impedance 308.320+291.396j;     
}       

object transformer_configuration {     
      name transformer_configuration_1110;     
      oil_volume 10;     
      core_coil_weight 85.6576;     
      tank_fittings_weight 102.7891;     
      full_load_loss 0.020333;     
      no_load_loss 0.0056;     
      rated_winding_hot_spot_rise 80;     
      rated_top_oil_rise 60;     
      coolant_type MINERAL_OIL;     
      cooling_type OA;     
      rated_winding_time_constant 0.083333;     
      installed_insulation_life 175200;     
      connect_type SINGLE_PHASE_CENTER_TAPPED;     
      install_type POLETOP;     
      primary_voltage 7200 V;    
      secondary_voltage 120 V;    
      power_rating 15.0;     
      powerA_rating 15.0;     
      resistance 0.01000;     
      reactance 0.00667;     
      shunt_impedance 318.750+314.733j;     
}       

object transformer_configuration {     
      name transformer_configuration_1111;     
      oil_volume 47;     
      core_coil_weight 343.2723;     
      tank_fittings_weight 411.9268;     
      full_load_loss 0.01365;     
      no_load_loss 0.00385;     
      rated_winding_hot_spot_rise 80;     
      rated_top_oil_rise 60;     
      coolant_type MINERAL_OIL;     
      cooling_type OA;     
      rated_winding_time_constant 0.083333;     
      installed_insulation_life 175200;     
      connect_type SINGLE_PHASE_CENTER_TAPPED;     
      install_type POLETOP;     
      primary_voltage 7200 V;    
      secondary_voltage 120 V;    
      power_rating 100.0;     
      powerA_rating 100.0;     
      resistance 0.00150;     
      reactance 0.00100;     
      shunt_impedance 496.060+510.921j;     
}       

object transformer_configuration {     
      name transformer_configuration_1112;     
      oil_volume 15.8333;     
      core_coil_weight 135.8138;     
      tank_fittings_weight 162.9766;     
      full_load_loss 0.0165;     
      no_load_loss 0.0046167;     
      rated_winding_hot_spot_rise 80;     
      rated_top_oil_rise 60;     
      coolant_type MINERAL_OIL;     
      cooling_type OA;     
      rated_winding_time_constant 0.0833;     
      installed_insulation_life 175200;     
      connect_type SINGLE_PHASE_CENTER_TAPPED;     
      install_type POLETOP;     
      primary_voltage 7200 V;    
      secondary_voltage 120 V;    
      power_rating 30.0;     
      powerA_rating 30.0;     
      resistance 0.00500;     
      reactance 0.00333;     
      shunt_impedance 350.040+360.407j;     
}       

object transformer_configuration {     
      name transformer_configuration_1113;     
      oil_volume 40;     
      core_coil_weight 256.2667;     
      tank_fittings_weight 307.5199;     
      full_load_loss 0.014;     
      no_load_loss 0.0038;     
      rated_winding_hot_spot_rise 80;     
      rated_top_oil_rise 60;     
      coolant_type MINERAL_OIL;     
      cooling_type OA;     
      rated_winding_time_constant 0.083333;     
      installed_insulation_life 175200;     
      connect_type SINGLE_PHASE_CENTER_TAPPED;     
      install_type POLETOP;     
      primary_voltage 7200 V;    
      secondary_voltage 120 V;    
      power_rating 75.0;     
      powerA_rating 75.0;     
      resistance 0.00200;     
      reactance 0.00133;     
      shunt_impedance 443.910+497.214j;     
}       

object transformer_configuration {     
      name transformer_configuration_1114;     
      oil_volume 8;     
      core_coil_weight 72.1624;     
      tank_fittings_weight 86.5949;     
      full_load_loss 0.0239;     
      no_load_loss 0.0067;     
      rated_winding_hot_spot_rise 80;     
      rated_top_oil_rise 60;     
      coolant_type MINERAL_OIL;     
      cooling_type OA;     
      rated_winding_time_constant 0.083333;     
      installed_insulation_life 175200;     
      connect_type SINGLE_PHASE_CENTER_TAPPED;     
      install_type PADMOUNT;     
      primary_voltage 7200 V;    
      secondary_voltage 120 V;    
      power_rating 10.0;     
      powerA_rating 10.0;     
      resistance 0.015;     
      reactance 0.01;     
      shunt_impedance 308.320+341.932j;     
}       

object transformer_configuration {     
      name transformer_configuration_1115;     
      oil_volume 48.4925;     
      core_coil_weight 375.5167;     
      tank_fittings_weight 450.62;     
      full_load_loss 0.0134;     
      no_load_loss 0.0039;     
      rated_winding_hot_spot_rise 80;     
      rated_top_oil_rise 60;     
      coolant_type MINERAL_OIL;     
      cooling_type OA;     
      rated_winding_time_constant 0.083333;     
      installed_insulation_life 175200;     
      connect_type SINGLE_PHASE_CENTER_TAPPED;     
      install_type PADMOUNT;     
      primary_voltage 7200 V;    
      secondary_voltage 120 V;    
      power_rating 125.0;     
      powerA_rating 125.0;     
      resistance 0.00120;     
      reactance 0.00080;     
      shunt_impedance 548.210+528.546j;     
}       

object transformer_configuration {     
      name transformer_configuration_1116;     
      oil_volume 47;     
      core_coil_weight 343.2723;     
      tank_fittings_weight 411.9268;     
      full_load_loss 0.01365;     
      no_load_loss 0.00385;     
      rated_winding_hot_spot_rise 80;     
      rated_top_oil_rise 60;     
      coolant_type MINERAL_OIL;     
      cooling_type OA;     
      rated_winding_time_constant 0.083333;     
      installed_insulation_life 175200;     
      connect_type SINGLE_PHASE_CENTER_TAPPED;     
      install_type PADMOUNT;     
      primary_voltage 7200 V;    
      secondary_voltage 120 V;    
      power_rating 100.0;     
      powerA_rating 100.0;     
      resistance 0.00150;     
      reactance 0.00100;     
      shunt_impedance 496.060+489.615j;     
}       

object transformer_configuration {     
      name transformer_configuration_1117;     
      oil_volume 5.7289;     
      core_coil_weight 56.5652;     
      tank_fittings_weight 67.8782;     
      full_load_loss 0.0346;     
      no_load_loss 0.01;     
      rated_winding_hot_spot_rise 80;     
      rated_top_oil_rise 60;     
      coolant_type MINERAL_OIL;     
      cooling_type OA;     
      rated_winding_time_constant 0.083333;     
      installed_insulation_life 175200;     
      connect_type SINGLE_PHASE_CENTER_TAPPED;     
      install_type PADMOUNT;     
      primary_voltage 7200 V;    
      secondary_voltage 120 V;    
      power_rating 5;     
      powerA_rating 5;     
      resistance 0.015;     
      reactance 0.01;     
      shunt_impedance 297.890+319.747j;     
}       

object transformer_configuration {     
      name transformer_configuration_1118;     
      oil_volume 40.9868;     
      core_coil_weight 293.4835;     
      tank_fittings_weight 352.1803;     
      full_load_loss 0.0138;     
      no_load_loss 0.0038;     
      rated_winding_hot_spot_rise 80;     
      rated_top_oil_rise 60;     
      coolant_type MINERAL_OIL;     
      cooling_type OA;     
      rated_winding_time_constant 0.083333;     
      installed_insulation_life 175200;     
      connect_type SINGLE_PHASE_CENTER_TAPPED;     
      install_type POLETOP;     
      primary_voltage 7200 V;    
      secondary_voltage 120 V;    
      power_rating 87.5;     
      powerA_rating 87.5;     
      resistance 0.00171;     
      reactance 0.00114;     
      shunt_impedance 469.985+475.640j;     
}       

object transformer_configuration {     
      name transformer_configuration_1119;     
      oil_volume 5.7289;     
      core_coil_weight 56.5652;     
      tank_fittings_weight 67.8782;     
      full_load_loss 0.0346;     
      no_load_loss 0.01;     
      rated_winding_hot_spot_rise 80;     
      rated_top_oil_rise 60;     
      coolant_type MINERAL_OIL;     
      cooling_type OA;     
      rated_winding_time_constant 0.083333;     
      installed_insulation_life 175200;     
      connect_type SINGLE_PHASE_CENTER_TAPPED;     
      install_type POLETOP;     
      primary_voltage 7200 V;    
      secondary_voltage 120 V;    
      power_rating 5;     
      powerB_rating 5;     
      resistance 0.015;     
      reactance 0.01;     
      shunt_impedance 297.890+331.740j;     
}       

object transformer_configuration {     
      name transformer_configuration_1120;     
      oil_volume 26;     
      core_coil_weight 216.346;     
      tank_fittings_weight 259.6152;     
      full_load_loss 0.0147;     
      no_load_loss 0.0037;     
      rated_winding_hot_spot_rise 80;     
      rated_top_oil_rise 60;     
      coolant_type MINERAL_OIL;     
      cooling_type OA;     
      rated_winding_time_constant 0.083333;     
      installed_insulation_life 175200;     
      connect_type SINGLE_PHASE_CENTER_TAPPED;     
      install_type POLETOP;     
      primary_voltage 7200 V;    
      secondary_voltage 120 V;    
      power_rating 50.0;     
      powerB_rating 50.0;     
      resistance 0.00300;     
      reactance 0.00200;     
      shunt_impedance 391.760+364.855j;     
}       

object transformer_configuration {     
      name transformer_configuration_1121;     
      oil_volume 15;     
      core_coil_weight 115.9863;     
      tank_fittings_weight 139.1836;     
      full_load_loss 0.01748;     
      no_load_loss 0.00472;     
      rated_winding_hot_spot_rise 80;     
      rated_top_oil_rise 60;     
      coolant_type MINERAL_OIL;     
      cooling_type OA;     
      rated_winding_time_constant 0.083333;     
      installed_insulation_life 175200;     
      connect_type SINGLE_PHASE_CENTER_TAPPED;     
      install_type POLETOP;     
      primary_voltage 7200 V;    
      secondary_voltage 120 V;    
      power_rating 25.0;     
      powerB_rating 25.0;     
      resistance 0.00600;     
      reactance 0.00400;     
      shunt_impedance 339.610+355.629j;     
}       

object transformer_configuration {     
      name transformer_configuration_1122;     
      oil_volume 26;     
      core_coil_weight 216.346;     
      tank_fittings_weight 259.6152;     
      full_load_loss 0.0147;     
      no_load_loss 0.0037;     
      rated_winding_hot_spot_rise 80;     
      rated_top_oil_rise 60;     
      coolant_type MINERAL_OIL;     
      cooling_type OA;     
      rated_winding_time_constant 0.083333;     
      installed_insulation_life 175200;     
      connect_type SINGLE_PHASE_CENTER_TAPPED;     
      install_type PADMOUNT;     
      primary_voltage 7200 V;    
      secondary_voltage 120 V;    
      power_rating 50.0;     
      powerB_rating 50.0;     
      resistance 0.00300;     
      reactance 0.00200;     
      shunt_impedance 391.760+403.056j;     
}       

object transformer_configuration {     
      name transformer_configuration_1123;     
      oil_volume 15;     
      core_coil_weight 115.9863;     
      tank_fittings_weight 139.1836;     
      full_load_loss 0.01748;     
      no_load_loss 0.00472;     
      rated_winding_hot_spot_rise 80;     
      rated_top_oil_rise 60;     
      coolant_type MINERAL_OIL;     
      cooling_type OA;     
      rated_winding_time_constant 0.083333;     
      installed_insulation_life 175200;     
      connect_type SINGLE_PHASE_CENTER_TAPPED;     
      install_type PADMOUNT;     
      primary_voltage 7200 V;    
      secondary_voltage 120 V;    
      power_rating 25.0;     
      powerB_rating 25.0;     
      resistance 0.00600;     
      reactance 0.00400;     
      shunt_impedance 339.610+386.879j;     
}       

object transformer_configuration {     
      name transformer_configuration_1124;     
      oil_volume 62.6955;     
      core_coil_weight 484.8942;     
      tank_fittings_weight 581.873;     
      full_load_loss 0.0132;     
      no_load_loss 0.0039;     
      rated_winding_hot_spot_rise 80;     
      rated_top_oil_rise 60;     
      coolant_type MINERAL_OIL;     
      cooling_type OA;     
      rated_winding_time_constant 0.083333;     
      installed_insulation_life 175200;     
      connect_type SINGLE_PHASE_CENTER_TAPPED;     
      install_type POLETOP;     
      primary_voltage 7200 V;    
      secondary_voltage 120 V;    
      power_rating 175.0;     
      powerB_rating 175.0;     
      resistance 0.00086;     
      reactance 0.00057;     
      shunt_impedance 652.510+564.715j;     
}       

object transformer_configuration {     
      name transformer_configuration_1125;     
      oil_volume 10;     
      core_coil_weight 85.6576;     
      tank_fittings_weight 102.7891;     
      full_load_loss 0.020333;     
      no_load_loss 0.0056;     
      rated_winding_hot_spot_rise 80;     
      rated_top_oil_rise 60;     
      coolant_type MINERAL_OIL;     
      cooling_type OA;     
      rated_winding_time_constant 0.083333;     
      installed_insulation_life 175200;     
      connect_type SINGLE_PHASE_CENTER_TAPPED;     
      install_type POLETOP;     
      primary_voltage 7200 V;    
      secondary_voltage 120 V;    
      power_rating 15.0;     
      powerB_rating 15.0;     
      resistance 0.01000;     
      reactance 0.00667;     
      shunt_impedance 318.750+318.774j;     
}       

object transformer_configuration {     
      name transformer_configuration_1126;     
      oil_volume 17;     
      core_coil_weight 163.5724;     
      tank_fittings_weight 196.2869;     
      full_load_loss 0.015811;     
      no_load_loss 0.0044865;     
      rated_winding_hot_spot_rise 80;     
      rated_top_oil_rise 60;     
      coolant_type MINERAL_OIL;     
      cooling_type OA;     
      rated_winding_time_constant 0.083333;     
      installed_insulation_life 175200;     
      connect_type SINGLE_PHASE_CENTER_TAPPED;     
      install_type POLETOP;     
      primary_voltage 7200 V;    
      secondary_voltage 120 V;    
      power_rating 37.5;     
      powerB_rating 37.5;     
      resistance 0.00400;     
      reactance 0.00267;     
      shunt_impedance 365.685+367.641j;     
}       

object transformer_configuration {     
      name transformer_configuration_1127;     
      oil_volume 84.8;     
      core_coil_weight 713.69;     
      tank_fittings_weight 856.43;     
      full_load_loss 0.013;     
      no_load_loss 0.004;     
      rated_winding_hot_spot_rise 80;     
      rated_top_oil_rise 60;     
      coolant_type MINERAL_OIL;     
      cooling_type OA;     
      rated_winding_time_constant 0.083333;     
      installed_insulation_life 175200;     
      connect_type SINGLE_PHASE_CENTER_TAPPED;     
      install_type POLETOP;     
      primary_voltage 7200 V;    
      secondary_voltage 120 V;    
      power_rating 300.0;     
      powerB_rating 300.0;     
      resistance 0.00050;     
      reactance 0.00033;     
      shunt_impedance 913.260+699.383j;     
}       

object transformer_configuration {     
      name transformer_configuration_1128;     
      oil_volume 40;     
      core_coil_weight 256.2667;     
      tank_fittings_weight 307.5199;     
      full_load_loss 0.014;     
      no_load_loss 0.0038;     
      rated_winding_hot_spot_rise 80;     
      rated_top_oil_rise 60;     
      coolant_type MINERAL_OIL;     
      cooling_type OA;     
      rated_winding_time_constant 0.083333;     
      installed_insulation_life 175200;     
      connect_type SINGLE_PHASE_CENTER_TAPPED;     
      install_type POLETOP;     
      primary_voltage 7200 V;    
      secondary_voltage 120 V;    
      power_rating 75.0;     
      powerB_rating 75.0;     
      resistance 0.00200;     
      reactance 0.00133;     
      shunt_impedance 443.910+499.314j;     
}       

object transformer_configuration {     
      name transformer_configuration_1129;     
      oil_volume 48.4925;     
      core_coil_weight 375.5167;     
      tank_fittings_weight 450.62;     
      full_load_loss 0.0134;     
      no_load_loss 0.0039;     
      rated_winding_hot_spot_rise 80;     
      rated_top_oil_rise 60;     
      coolant_type MINERAL_OIL;     
      cooling_type OA;     
      rated_winding_time_constant 0.083333;     
      installed_insulation_life 175200;     
      connect_type SINGLE_PHASE_CENTER_TAPPED;     
      install_type POLETOP;     
      primary_voltage 7200 V;    
      secondary_voltage 120 V;    
      power_rating 125.0;     
      powerB_rating 125.0;     
      resistance 0.00120;     
      reactance 0.00080;     
      shunt_impedance 548.210+702.215j;     
}       

object transformer_configuration {     
      name transformer_configuration_1130;     
      oil_volume 47;     
      core_coil_weight 343.2723;     
      tank_fittings_weight 411.9268;     
      full_load_loss 0.01365;     
      no_load_loss 0.00385;     
      rated_winding_hot_spot_rise 80;     
      rated_top_oil_rise 60;     
      coolant_type MINERAL_OIL;     
      cooling_type OA;     
      rated_winding_time_constant 0.083333;     
      installed_insulation_life 175200;     
      connect_type SINGLE_PHASE_CENTER_TAPPED;     
      install_type POLETOP;     
      primary_voltage 7200 V;    
      secondary_voltage 120 V;    
      power_rating 100.0;     
      powerB_rating 100.0;     
      resistance 0.00150;     
      reactance 0.00100;     
      shunt_impedance 496.060+484.542j;     
}       

object transformer_configuration {     
      name transformer_configuration_1131;     
      oil_volume 8;     
      core_coil_weight 72.1624;     
      tank_fittings_weight 86.5949;     
      full_load_loss 0.0239;     
      no_load_loss 0.0067;     
      rated_winding_hot_spot_rise 80;     
      rated_top_oil_rise 60;     
      coolant_type MINERAL_OIL;     
      cooling_type OA;     
      rated_winding_time_constant 0.083333;     
      installed_insulation_life 175200;     
      connect_type SINGLE_PHASE_CENTER_TAPPED;     
      install_type POLETOP;     
      primary_voltage 7200 V;    
      secondary_voltage 120 V;    
      power_rating 10.0;     
      powerB_rating 10.0;     
      resistance 0.015;     
      reactance 0.01;     
      shunt_impedance 308.320+317.170j;     
}       

object transformer_configuration {     
      name transformer_configuration_1132;     
      oil_volume 5.7289;     
      core_coil_weight 56.5652;     
      tank_fittings_weight 67.8782;     
      full_load_loss 0.0346;     
      no_load_loss 0.01;     
      rated_winding_hot_spot_rise 80;     
      rated_top_oil_rise 60;     
      coolant_type MINERAL_OIL;     
      cooling_type OA;     
      rated_winding_time_constant 0.083333;     
      installed_insulation_life 175200;     
      connect_type SINGLE_PHASE_CENTER_TAPPED;     
      install_type PADMOUNT;     
      primary_voltage 7200 V;    
      secondary_voltage 120 V;    
      power_rating 5;     
      powerB_rating 5;     
      resistance 0.015;     
      reactance 0.01;     
      shunt_impedance 297.890+284.050j;     
}       

object transformer_configuration {     
      name transformer_configuration_1133;     
      oil_volume 40;     
      core_coil_weight 256.2667;     
      tank_fittings_weight 307.5199;     
      full_load_loss 0.014;     
      no_load_loss 0.0038;     
      rated_winding_hot_spot_rise 80;     
      rated_top_oil_rise 60;     
      coolant_type MINERAL_OIL;     
      cooling_type OA;     
      rated_winding_time_constant 0.083333;     
      installed_insulation_life 175200;     
      connect_type SINGLE_PHASE_CENTER_TAPPED;     
      install_type PADMOUNT;     
      primary_voltage 7200 V;    
      secondary_voltage 120 V;    
      power_rating 75.0;     
      powerB_rating 75.0;     
      resistance 0.00200;     
      reactance 0.00133;     
      shunt_impedance 443.910+460.970j;     
}       

object transformer_configuration {     
      name transformer_configuration_1134;     
      oil_volume 15.8333;     
      core_coil_weight 135.8138;     
      tank_fittings_weight 162.9766;     
      full_load_loss 0.0165;     
      no_load_loss 0.0046167;     
      rated_winding_hot_spot_rise 80;     
      rated_top_oil_rise 60;     
      coolant_type MINERAL_OIL;     
      cooling_type OA;     
      rated_winding_time_constant 0.0833;     
      installed_insulation_life 175200;     
      connect_type SINGLE_PHASE_CENTER_TAPPED;     
      install_type POLETOP;     
      primary_voltage 7200 V;    
      secondary_voltage 120 V;    
      power_rating 30.0;     
      powerB_rating 30.0;     
      resistance 0.00500;     
      reactance 0.00333;     
      shunt_impedance 350.040+336.745j;     
}       

object transformer_configuration {     
      name transformer_configuration_1135;     
      oil_volume 10;     
      core_coil_weight 85.6576;     
      tank_fittings_weight 102.7891;     
      full_load_loss 0.020333;     
      no_load_loss 0.0056;     
      rated_winding_hot_spot_rise 80;     
      rated_top_oil_rise 60;     
      coolant_type MINERAL_OIL;     
      cooling_type OA;     
      rated_winding_time_constant 0.083333;     
      installed_insulation_life 175200;     
      connect_type SINGLE_PHASE_CENTER_TAPPED;     
      install_type POLETOP;     
      primary_voltage 7200 V;    
      secondary_voltage 120 V;    
      power_rating 15.0;     
      powerC_rating 15.0;     
      resistance 0.01000;     
      reactance 0.00667;     
      shunt_impedance 318.750+315.506j;     
}       

object transformer_configuration {     
      name transformer_configuration_1136;     
      oil_volume 15;     
      core_coil_weight 115.9863;     
      tank_fittings_weight 139.1836;     
      full_load_loss 0.01748;     
      no_load_loss 0.00472;     
      rated_winding_hot_spot_rise 80;     
      rated_top_oil_rise 60;     
      coolant_type MINERAL_OIL;     
      cooling_type OA;     
      rated_winding_time_constant 0.083333;     
      installed_insulation_life 175200;     
      connect_type SINGLE_PHASE_CENTER_TAPPED;     
      install_type POLETOP;     
      primary_voltage 7200 V;    
      secondary_voltage 120 V;    
      power_rating 25.0;     
      powerC_rating 25.0;     
      resistance 0.00600;     
      reactance 0.00400;     
      shunt_impedance 339.610+394.564j;     
}       

object transformer_configuration {     
      name transformer_configuration_1137;     
      oil_volume 47;     
      core_coil_weight 343.2723;     
      tank_fittings_weight 411.9268;     
      full_load_loss 0.01365;     
      no_load_loss 0.00385;     
      rated_winding_hot_spot_rise 80;     
      rated_top_oil_rise 60;     
      coolant_type MINERAL_OIL;     
      cooling_type OA;     
      rated_winding_time_constant 0.083333;     
      installed_insulation_life 175200;     
      connect_type SINGLE_PHASE_CENTER_TAPPED;     
      install_type POLETOP;     
      primary_voltage 7200 V;    
      secondary_voltage 120 V;    
      power_rating 100.0;     
      powerC_rating 100.0;     
      resistance 0.00150;     
      reactance 0.00100;     
      shunt_impedance 496.060+454.032j;     
}       

object transformer_configuration {     
      name transformer_configuration_1138;     
      oil_volume 26;     
      core_coil_weight 216.346;     
      tank_fittings_weight 259.6152;     
      full_load_loss 0.0147;     
      no_load_loss 0.0037;     
      rated_winding_hot_spot_rise 80;     
      rated_top_oil_rise 60;     
      coolant_type MINERAL_OIL;     
      cooling_type OA;     
      rated_winding_time_constant 0.083333;     
      installed_insulation_life 175200;     
      connect_type SINGLE_PHASE_CENTER_TAPPED;     
      install_type POLETOP;     
      primary_voltage 7200 V;    
      secondary_voltage 120 V;    
      power_rating 50.0;     
      powerC_rating 50.0;     
      resistance 0.00300;     
      reactance 0.00200;     
      shunt_impedance 391.760+369.199j;     
}       

object transformer_configuration {     
      name transformer_configuration_1139;     
      oil_volume 26;     
      core_coil_weight 216.346;     
      tank_fittings_weight 259.6152;     
      full_load_loss 0.0147;     
      no_load_loss 0.0037;     
      rated_winding_hot_spot_rise 80;     
      rated_top_oil_rise 60;     
      coolant_type MINERAL_OIL;     
      cooling_type OA;     
      rated_winding_time_constant 0.083333;     
      installed_insulation_life 175200;     
      connect_type SINGLE_PHASE_CENTER_TAPPED;     
      install_type PADMOUNT;     
      primary_voltage 7200 V;    
      secondary_voltage 120 V;    
      power_rating 50.0;     
      powerC_rating 50.0;     
      resistance 0.00300;     
      reactance 0.00200;     
      shunt_impedance 391.760+388.786j;     
}       

object transformer_configuration {     
      name transformer_configuration_1140;     
      oil_volume 17;     
      core_coil_weight 163.5724;     
      tank_fittings_weight 196.2869;     
      full_load_loss 0.015811;     
      no_load_loss 0.0044865;     
      rated_winding_hot_spot_rise 80;     
      rated_top_oil_rise 60;     
      coolant_type MINERAL_OIL;     
      cooling_type OA;     
      rated_winding_time_constant 0.083333;     
      installed_insulation_life 175200;     
      connect_type SINGLE_PHASE_CENTER_TAPPED;     
      install_type PADMOUNT;     
      primary_voltage 7200 V;    
      secondary_voltage 120 V;    
      power_rating 37.5;     
      powerC_rating 37.5;     
      resistance 0.00400;     
      reactance 0.00267;     
      shunt_impedance 365.685+360.841j;     
}       

object transformer_configuration {     
      name transformer_configuration_1141;     
      oil_volume 5.7289;     
      core_coil_weight 56.5652;     
      tank_fittings_weight 67.8782;     
      full_load_loss 0.0346;     
      no_load_loss 0.01;     
      rated_winding_hot_spot_rise 80;     
      rated_top_oil_rise 60;     
      coolant_type MINERAL_OIL;     
      cooling_type OA;     
      rated_winding_time_constant 0.083333;     
      installed_insulation_life 175200;     
      connect_type SINGLE_PHASE_CENTER_TAPPED;     
      install_type PADMOUNT;     
      primary_voltage 7200 V;    
      secondary_voltage 120 V;    
      power_rating 5;     
      powerC_rating 5;     
      resistance 0.015;     
      reactance 0.01;     
      shunt_impedance 297.890+340.766j;     
}       

object transformer_configuration {     
      name transformer_configuration_1142;     
      oil_volume 62.6955;     
      core_coil_weight 484.8942;     
      tank_fittings_weight 581.873;     
      full_load_loss 0.0132;     
      no_load_loss 0.0039;     
      rated_winding_hot_spot_rise 80;     
      rated_top_oil_rise 60;     
      coolant_type MINERAL_OIL;     
      cooling_type OA;     
      rated_winding_time_constant 0.083333;     
      installed_insulation_life 175200;     
      connect_type SINGLE_PHASE_CENTER_TAPPED;     
      install_type POLETOP;     
      primary_voltage 7200 V;    
      secondary_voltage 120 V;    
      power_rating 175.0;     
      powerC_rating 175.0;     
      resistance 0.00086;     
      reactance 0.00057;     
      shunt_impedance 652.510+785.052j;     
}       

object transformer_configuration {     
      name transformer_configuration_1143;     
      oil_volume 5.7289;     
      core_coil_weight 56.5652;     
      tank_fittings_weight 67.8782;     
      full_load_loss 0.0346;     
      no_load_loss 0.01;     
      rated_winding_hot_spot_rise 80;     
      rated_top_oil_rise 60;     
      coolant_type MINERAL_OIL;     
      cooling_type OA;     
      rated_winding_time_constant 0.083333;     
      installed_insulation_life 175200;     
      connect_type SINGLE_PHASE_CENTER_TAPPED;     
      install_type POLETOP;     
      primary_voltage 7200 V;    
      secondary_voltage 120 V;    
      power_rating 5;     
      powerC_rating 5;     
      resistance 0.015;     
      reactance 0.01;     
      shunt_impedance 297.890+268.750j;     
}       

object transformer_configuration {     
      name transformer_configuration_1144;     
      oil_volume 64.9157;     
      core_coil_weight 532.4426;     
      tank_fittings_weight 638.93;     
      full_load_loss 0.0131;     
      no_load_loss 0.0039;     
      rated_winding_hot_spot_rise 80;     
      rated_top_oil_rise 60;     
      coolant_type MINERAL_OIL;     
      cooling_type OA;     
      rated_winding_time_constant 0.083333;     
      installed_insulation_life 175200;     
      connect_type SINGLE_PHASE_CENTER_TAPPED;     
      install_type POLETOP;     
      primary_voltage 7200 V;    
      secondary_voltage 120 V;    
      power_rating 200.0;     
      powerC_rating 200.0;     
      resistance 0.00075;     
      reactance 0.00050;     
      shunt_impedance 704.660+659.490j;     
}       

object transformer_configuration {     
      name transformer_configuration_1145;     
      oil_volume 49.9851;     
      core_coil_weight 424.1395;     
      tank_fittings_weight 508.9674;     
      full_load_loss 0.0133;     
      no_load_loss 0.0039;     
      rated_winding_hot_spot_rise 80;     
      rated_top_oil_rise 60;     
      coolant_type MINERAL_OIL;     
      cooling_type OA;     
      rated_winding_time_constant 0.083333;     
      installed_insulation_life 175200;     
      connect_type SINGLE_PHASE_CENTER_TAPPED;     
      install_type POLETOP;     
      primary_voltage 7200 V;    
      secondary_voltage 120 V;    
      power_rating 150.0;     
      powerC_rating 150.0;     
      resistance 0.00100;     
      reactance 0.00067;     
      shunt_impedance 600.360+631.607j;     
}       

object transformer_configuration {     
      name transformer_configuration_1146;     
      oil_volume 40;     
      core_coil_weight 256.2667;     
      tank_fittings_weight 307.5199;     
      full_load_loss 0.014;     
      no_load_loss 0.0038;     
      rated_winding_hot_spot_rise 80;     
      rated_top_oil_rise 60;     
      coolant_type MINERAL_OIL;     
      cooling_type OA;     
      rated_winding_time_constant 0.083333;     
      installed_insulation_life 175200;     
      connect_type SINGLE_PHASE_CENTER_TAPPED;     
      install_type POLETOP;     
      primary_voltage 7200 V;    
      secondary_voltage 120 V;    
      power_rating 75.0;     
      powerC_rating 75.0;     
      resistance 0.00200;     
      reactance 0.00133;     
      shunt_impedance 443.910+427.010j;     
}       

object transformer_configuration {     
      name transformer_configuration_1147;     
      oil_volume 48.4925;     
      core_coil_weight 375.5167;     
      tank_fittings_weight 450.62;     
      full_load_loss 0.0134;     
      no_load_loss 0.0039;     
      rated_winding_hot_spot_rise 80;     
      rated_top_oil_rise 60;     
      coolant_type MINERAL_OIL;     
      cooling_type OA;     
      rated_winding_time_constant 0.083333;     
      installed_insulation_life 175200;     
      connect_type SINGLE_PHASE_CENTER_TAPPED;     
      install_type POLETOP;     
      primary_voltage 7200 V;    
      secondary_voltage 120 V;    
      power_rating 125.0;     
      powerC_rating 125.0;     
      resistance 0.00120;     
      reactance 0.00080;     
      shunt_impedance 548.210+657.460j;     
}       

object transformer_configuration {     
      name transformer_configuration_1148;     
      oil_volume 15;     
      core_coil_weight 115.9863;     
      tank_fittings_weight 139.1836;     
      full_load_loss 0.01748;     
      no_load_loss 0.00472;     
      rated_winding_hot_spot_rise 80;     
      rated_top_oil_rise 60;     
      coolant_type MINERAL_OIL;     
      cooling_type OA;     
      rated_winding_time_constant 0.083333;     
      installed_insulation_life 175200;     
      connect_type SINGLE_PHASE_CENTER_TAPPED;     
      install_type PADMOUNT;     
      primary_voltage 7200 V;    
      secondary_voltage 120 V;    
      power_rating 25.0;     
      powerC_rating 25.0;     
      resistance 0.00600;     
      reactance 0.00400;     
      shunt_impedance 339.610+395.166j;     
}       

object transformer_configuration {     
      name transformer_configuration_1149;     
      oil_volume 10;     
      core_coil_weight 85.6576;     
      tank_fittings_weight 102.7891;     
      full_load_loss 0.020333;     
      no_load_loss 0.0056;     
      rated_winding_hot_spot_rise 80;     
      rated_top_oil_rise 60;     
      coolant_type MINERAL_OIL;     
      cooling_type OA;     
      rated_winding_time_constant 0.083333;     
      installed_insulation_life 175200;     
      connect_type SINGLE_PHASE_CENTER_TAPPED;     
      install_type PADMOUNT;     
      primary_voltage 7200 V;    
      secondary_voltage 120 V;    
      power_rating 15.0;     
      powerC_rating 15.0;     
      resistance 0.01000;     
      reactance 0.00667;     
      shunt_impedance 318.750+336.569j;     
}       

object transformer_configuration {     
      name transformer_configuration_1150;     
      oil_volume 40.9868;     
      core_coil_weight 293.4835;     
      tank_fittings_weight 352.1803;     
      full_load_loss 0.0138;     
      no_load_loss 0.0038;     
      rated_winding_hot_spot_rise 80;     
      rated_top_oil_rise 60;     
      coolant_type MINERAL_OIL;     
      cooling_type OA;     
      rated_winding_time_constant 0.083333;     
      installed_insulation_life 175200;     
      connect_type SINGLE_PHASE_CENTER_TAPPED;     
      install_type POLETOP;     
      primary_voltage 7200 V;    
      secondary_voltage 120 V;    
      power_rating 87.5;     
      powerC_rating 87.5;     
      resistance 0.00171;     
      reactance 0.00114;     
      shunt_impedance 469.985+496.475j;     
}       

object transformer_configuration {     
      name transformer_configuration_1151;     
      oil_volume 84.8;     
      core_coil_weight 713.69;     
      tank_fittings_weight 856.43;     
      full_load_loss 0.013;     
      no_load_loss 0.004;     
      rated_winding_hot_spot_rise 80;     
      rated_top_oil_rise 60;     
      coolant_type MINERAL_OIL;     
      cooling_type OA;     
      rated_winding_time_constant 0.083333;     
      installed_insulation_life 175200;     
      connect_type SINGLE_PHASE_CENTER_TAPPED;     
      install_type POLETOP;     
      primary_voltage 7200 V;    
      secondary_voltage 120 V;    
      power_rating 300.0;     
      powerC_rating 300.0;     
      resistance 0.00050;     
      reactance 0.00033;     
      shunt_impedance 913.260+882.356j;     
}       

object transformer_configuration {     
      name transformer_configuration_1152;     
      oil_volume 8;     
      core_coil_weight 72.1624;     
      tank_fittings_weight 86.5949;     
      full_load_loss 0.0239;     
      no_load_loss 0.0067;     
      rated_winding_hot_spot_rise 80;     
      rated_top_oil_rise 60;     
      coolant_type MINERAL_OIL;     
      cooling_type OA;     
      rated_winding_time_constant 0.083333;     
      installed_insulation_life 175200;     
      connect_type SINGLE_PHASE_CENTER_TAPPED;     
      install_type POLETOP;     
      primary_voltage 7200 V;    
      secondary_voltage 120 V;    
      power_rating 10.0;     
      powerC_rating 10.0;     
      resistance 0.015;     
      reactance 0.01;     
      shunt_impedance 308.320+317.170j;     
}       

object transformer_configuration {     
      name transformer_configuration_1344;     
      connect_type WYE_WYE;     
      install_type POLETOP;     
      primary_voltage 12470.000 V;    
      secondary_voltage 480 V;    
      power_rating 525.0;     
      powerA_rating 175.0;     
      powerB_rating 175.0;     
      powerC_rating 175.0;     
      resistance 0.00019;     
      reactance 0.00095;     
      shunt_impedance 1382.610+1488.193j;     
}       

object transformer_configuration {     
      name transformer_configuration_1345;     
      connect_type WYE_WYE;     
...